Using: /usr/synopsys/hspice/N-2017.12-SP2/hspice/linux64/hspice SRAM.sp
 lic: total license checkout elapse time:        0.00(s)
